105
input.log
N                5.088691            3.148327            1.491235
H                5.355615            2.173919            1.370866
C                3.265913            2.669319           -0.010909
C                3.984914            3.644970            0.915667
O                3.580074            4.799287            1.073637
N                1.852925            2.980749           -0.009725
H                1.560965            3.966587            0.020807
C                0.951349            2.034556           -0.247108
O                1.263155            0.847244           -0.456414
C               -0.503968            2.478059           -0.224834
N               -1.317704            1.333066           -0.557986
H               -0.992571            0.423266           -0.244470
C               -2.472237            1.429346           -1.206406
O               -2.979597            2.526524           -1.527836
H                3.385124            1.655851            0.377286
H               -0.622892            3.220123           -1.017880
C               -3.118981            0.122193           -1.653972
H               -2.642219           -0.064608           -2.626321
C                3.867303            2.728010           -1.416983
H                3.790347            3.736730           -1.831988
H                4.920553            2.433754           -1.389771
H                3.331243            2.035975           -2.071604
C               -0.926333            3.110127            1.104615
H               -0.854214            2.392024            1.922000
H               -0.318041            3.988967            1.325436
H               -1.970091            3.428750            1.027301
C                3.900408           -1.239847           -1.114292
N                5.225242           -1.476231           -0.577867
H                5.707494           -2.304864           -0.895959
C                5.820541           -0.693301            0.343305
O                5.284786            0.325292            0.789117
C                7.187898           -1.115255            0.802980
C                2.973024           -2.325322           -0.571265
O                3.190430           -3.511959           -0.851694
N                1.954579           -1.909348            0.190439
H                1.853686           -0.913197            0.395952
C                1.049450           -2.837375            0.843038
C               -0.296936           -2.163734            1.060381
O               -0.363375           -0.999592            1.511872
N               -1.361754           -2.905435            0.780528
H               -1.218674           -3.792218            0.275119
H                3.573550           -0.263615           -0.752749
H                0.913727           -3.693336            0.179010
C               -2.729163           -2.495383            1.082956
H               -3.385246           -3.195135            0.555132
C                3.908405           -1.262275           -2.638622
H                4.256258           -2.231721           -3.006978
H                2.897166           -1.086899           -3.017880
H                4.572049           -0.479756           -3.015149
C                1.602474           -3.322336            2.184972
H                2.558608           -3.825045            2.017257
H                1.761240           -2.479163            2.862224
H                0.912786           -4.031291            2.650963
H                7.667558           -1.845388            0.142988
C               -3.047822           -2.572198            2.566114
H               -4.088198           -2.284280            2.733602
H               -2.907319           -3.599861            2.909242
H               -2.407858           -1.911228            3.151537
C               -3.060421           -1.131623            0.469725
C               -4.619489            0.225559           -1.889165
H               -4.837157            1.058157           -2.560665
H               -4.968265           -0.698347           -2.356228
H               -5.164575            0.369764           -0.956779
O               -3.602385           -0.225776            1.114639
N               -2.743076           -1.008630           -0.827462
H               -2.301069           -1.789970           -1.311994
H                7.813831           -0.227709            0.888721
H                7.086964           -1.557999            1.801637
H                5.656309            3.755828            2.063589
O                1.751527           -5.814502           -0.888133
H                1.945603           -6.354212           -0.115939
H                2.309158           -5.009978           -0.806360
O                0.450165            5.553818           -0.512121
H                0.937103            6.126062           -1.118184
H               -0.450259            5.479496           -0.895819
O               -2.140151            5.183909           -1.407408
H               -2.724018            5.628261           -0.781273
H               -2.434551            4.251944           -1.449643
O               -0.883251           -4.972555           -1.052709
H                0.024060           -5.340734           -1.047698
H               -0.901043           -4.285052           -1.746221
O               -5.752656           -2.760906            0.081897
H               -6.332681           -1.991292            0.263061
H               -5.829585           -2.917946           -0.864440
O                0.545037           -0.620441           -2.676688
H                0.735230           -0.104309           -1.864652
H                0.334204            0.030834           -3.355950
O               -5.798837            1.414961            1.349292
H               -5.737425            2.153554            0.708187
H               -4.949945            0.930817            1.258576
O               -5.410076            3.385466           -0.554176
H               -4.619423            3.044680           -0.985234
H               -6.093784            3.460623           -1.231817
O               -1.198554           -2.672082           -2.585681
H               -1.573815           -2.749983           -3.470820
H               -0.509772           -1.969895           -2.643720
O                1.874533            0.225362            2.672648
H                1.054306           -0.144818            2.284387
H                1.786184            1.179734            2.605808
O               -7.411583           -0.598816            0.602020
H               -6.888654            0.184024            0.902959
H               -8.055181           -0.777599            1.295996
O               -1.930536            0.594188            3.319947
H               -2.709702            0.469672            2.757521
H               -1.272639            0.068222            2.844030
